Version 4
SHEET 1 880 680
WIRE 176 -80 176 -112
WIRE 176 -80 -48 -80
WIRE 368 -80 176 -80
WIRE -48 -16 -48 -80
WIRE 368 -16 368 -80
WIRE 176 16 176 -80
WIRE -48 128 -48 64
WIRE -48 128 -80 128
WIRE 160 128 160 80
WIRE 160 128 -48 128
WIRE 192 128 192 80
WIRE 368 128 368 64
WIRE 368 128 192 128
WIRE -48 224 -48 208
WIRE 368 224 368 208
FLAG -48 224 0
FLAG 368 224 0
FLAG 176 -112 Vo
FLAG -336 -208 Vcc
FLAG 208 48 Vcc
FLAG -224 -208 Vss
FLAG 144 48 Vss
FLAG -224 -128 0
FLAG -336 -128 0
FLAG -368 240 0
FLAG -368 160 Vin
FLAG -160 128 Vin
SYMBOL AutoGenerated\\LM324 176 48 M270
WINDOW 3 61 22 Top 2
SYMATTR InstName U1
SYMBOL res -64 -32 R0
SYMATTR InstName R1
SYMATTR Value 100
SYMBOL res 352 -32 R0
SYMATTR InstName R2
SYMATTR Value 10k
SYMBOL res -64 112 R90
WINDOW 0 0 56 VBottom 2
WINDOW 3 32 56 VTop 2
SYMATTR InstName R3
SYMATTR Value 1k
SYMBOL res 352 112 R0
SYMATTR InstName R4
SYMATTR Value 100k
SYMBOL res -64 112 R0
SYMATTR InstName RL
SYMATTR Value 1k
SYMBOL voltage -368 144 R0
WINDOW 3 24 44 Left 2
WINDOW 123 24 72 Left 2
WINDOW 39 0 0 Left 0
SYMATTR Value SINE(0 1 1k)
SYMATTR InstName Vin
SYMBOL voltage -336 -224 R0
WINDOW 123 0 0 Left 0
WINDOW 39 0 0 Left 0
SYMATTR InstName Vcc
SYMATTR Value 10
SYMBOL voltage -224 -224 R0
SYMATTR InstName Vss
SYMATTR Value -10
TEXT -402 264 Left 2 !.tran .005
